#QR for Kohana 3.x

##How to use

###1. Add submodule
	$ git submodule add https://github.com/ele-eel/qr_code.git vendor/qr_code

###2. Edit 'QRCODE_DATA_PATH' in qrcode.php. 
	define('QRCODE_DATA_PATH', MODPATH.'kohana-qr/vendor/qr_code/qrcode_data');

###3. Enable this module at bootstrap.
	'kohana-qr' => MODPATH.'kohana-qr', // QR image module

###4. Show a sample QR image.
	your_site_url/qr?url=sample_text

